Circuit: * C:\Users\Semih\Documents\3D things\robotUprising\invaderBot\mainboard\autoshutoff-LTspice.asc

.OP point found by inspection.

Date: Mon Aug 05 10:30:03 2019
Total elapsed time: 0.200 seconds.

tnom = 27
temp = 27
method = modified trap
totiter = 2114
traniter = 2114
tranpoints = 1058
accept = 1057
rejected = 1
matrix size = 3
fillins = 0
solver = Normal
Matrix Compiler1: off  [0.0]/0.1/0.1
Matrix Compiler2: 163 bytes object code size  0.2/0.2/[0.1]


